LTspice 26.0.1 for Windows
Circuit: C:\Users\matte\Documents\Tesi\LTspice\currentmode.net
Start Time: Thu Mar 19 10:59:16 2026
Options:method=gear
solver = Normal
Maximum thread count: 4
tnom = 27
temp = 27
method = Gear
WARNING: Node x2:n003 is floating.

Direct Newton iteration succeeded in finding operating point.
Total elapsed time: 0.754 seconds.

Files loaded:
C:\Users\matte\Documents\Tesi\LTspice\currentmode.net
C:\Users\matte\AppData\Local\LTspice\lib\sub\MAX4230.lib

