LTspice 26.0.1 for Windows
Circuit: C:\Users\matte\Documents\Tesi\LTspice\voltagemode.net
Start Time: Thu Mar 12 13:34:05 2026
solver = Normal
Maximum thread count: 4
tnom = 27
temp = 27
method = trap
Direct Newton iteration succeeded in finding operating point.
Total elapsed time: 0.729 seconds.

Files loaded:
C:\Users\matte\Documents\Tesi\LTspice\voltagemode.net
C:\Users\matte\AppData\Local\LTspice\lib\sub\MAX4230.lib

