LTspice 26.0.1 for Windows
Circuit: C:\Users\matte\Documents\Tesi-SPaRKLE\LTspice\Convertitori\Step_Down.net
Start Time: Tue Apr 14 17:01:50 2026
solver = Normal
Maximum thread count: 12
tnom = 27
temp = 27
method = trap
Direct Newton iteration failed to find operating point.
Starting Gmin stepping
Gmin stepping succeeded in finding the operating point.

Total elapsed time: 0.234 seconds.

Files loaded:
C:\Users\matte\Documents\Tesi-SPaRKLE\LTspice\Convertitori\Step_Down.net
C:\Users\matte\AppData\Local\LTspice\lib\sub\ADP124.sub
C:\Users\matte\AppData\Local\LTspice\lib\sub\LT1761.lib

