LTspice 26.0.1 for Windows
Circuit: C:\Users\matte\Documents\Tesi\LTspice\Update\confronto.net
Start Time: Sun Apr 12 16:04:08 2026
solver = Normal
Maximum thread count: 12
tnom = 27
temp = 27
method = trap
Direct Newton iteration succeeded in finding operating point.
Total elapsed time: 1.352 seconds.

Files loaded:
C:\Users\matte\Documents\Tesi\LTspice\Update\confronto.net
C:\Users\matte\AppData\Local\LTspice\lib\sub\LT1803.sub

