LTspice 26.0.1 for Windows
Circuit: C:\Users\matte\Documents\Tesi-SPaRKLE\LTspice\Update\confronto.net
Start Time: Mon Apr 13 07:21:21 2026
Options:method=gear
solver = Normal
Maximum thread count: 12
tnom = 27
temp = 27
method = Gear
Direct Newton iteration succeeded in finding operating point.
Total elapsed time: 14.175 seconds.

Files loaded:
C:\Users\matte\Documents\Tesi-SPaRKLE\LTspice\Update\confronto.net
C:\Users\matte\AppData\Local\LTspice\lib\sub\LT1803.sub

