LTspice 26.0.1 for Windows
Circuit: C:\Users\matte\Documents\Tesi\LTspice\Update\currentmode_v1.net
Start Time: Fri Apr 10 06:36:36 2026
solver = Normal
Maximum thread count: 12
tnom = 27
temp = 27
method = trap
Direct Newton iteration succeeded in finding operating point.
Total elapsed time: 0.596 seconds.

Files loaded:
C:\Users\matte\Documents\Tesi\LTspice\Update\currentmode_v1.net
C:\Users\matte\AppData\Local\LTspice\lib\sub\LT1803.sub

