LTspice 26.0.1 for Windows
Circuit: C:\Users\matte\Documents\Tesi\LTspice\Update\currentmode.net
Start Time: Fri Apr 10 17:38:09 2026
solver = Normal
Maximum thread count: 12
tnom = 27
temp = 27
method = trap
Direct Newton iteration succeeded in finding operating point.
Total elapsed time: 0.595 seconds.

Files loaded:
C:\Users\matte\Documents\Tesi\LTspice\Update\currentmode.net
C:\Users\matte\AppData\Local\LTspice\lib\sub\LT1803.sub

