LTspice 26.0.1 for Windows
Circuit: C:\Users\matte\Documents\Tesi\LTspice\Update\voltagemode_update_current_SiPM.net
Start Time: Fri Apr 10 17:46:05 2026
solver = Normal
Maximum thread count: 12
tnom = 27
temp = 27
method = trap
Direct Newton iteration succeeded in finding operating point.
Total elapsed time: 0.777 seconds.

Files loaded:
C:\Users\matte\Documents\Tesi\LTspice\Update\voltagemode_update_current_SiPM.net
C:\Users\matte\AppData\Local\LTspice\lib\sub\LT1803.sub

