LTspice 26.0.1 for Windows
Circuit: C:\Users\matte\Documents\Tesi\LTspice\Update\voltagemode_update.net
Start Time: Thu Mar 26 09:09:48 2026
solver = Normal
Maximum thread count: 12
tnom = 27
temp = 27
method = trap
Direct Newton iteration succeeded in finding operating point.
Total elapsed time: 0.199 seconds.

Files loaded:
C:\Users\matte\Documents\Tesi\LTspice\Update\voltagemode_update.net
C:\Users\matte\AppData\Local\LTspice\lib\sub\LT1803.sub

